<?xml version="1.0" encoding="UTF-8"?>

<!-- generated on 2023-07-17 06:10:40 by Eclipse SUMO netconvert Version 1.18.0
<configuration xmlns:xsi="http://www.w3.org/2001/XMLSchema-instance" xsi:noNamespaceSchemaLocation="http://sumo.dlr.de/xsd/netconvertConfiguration.xsd">

    <input>
        <osm-files value="map.osm"/>
    </input>

    <output>
        <output-file value="dadi.net.xml"/>
    </output>

    <projection>
        <proj.utm value="true"/>
    </projection>

</configuration>
-->

<net version="1.16" junctionCornerDetail="5" limitTurnSpeed="5.50" xmlns:xsi="http://www.w3.org/2001/XMLSchema-instance" xsi:noNamespaceSchemaLocation="http://sumo.dlr.de/xsd/net_file.xsd">

    <location netOffset="-711839.30,-3948172.61" convBoundary="0.00,0.00,4025.06,6010.87" origBoundary="-0.658434,35.654065,-0.614211,35.708819" projParameter="+proj=utm +zone=30 +ellps=WGS84 +datum=WGS84 +units=m +no_defs"/>

    <type id="highway.footway" priority="1" numLanes="1" speed="2.78" allow="pedestrian" oneway="1" width="2.00"/>
    <type id="highway.path" priority="1" numLanes="1" speed="5.56" allow="pedestrian bicycle" oneway="0" width="2.00"/>
    <type id="highway.primary" priority="12" numLanes="2" speed="27.78" disallow="tram rail_urban rail rail_electric rail_fast ship" oneway="0"/>
    <type id="highway.primary_link" priority="7" numLanes="1" speed="22.22" disallow="tram rail_urban rail rail_electric rail_fast ship" oneway="0"/>
    <type id="highway.residential" priority="3" numLanes="1" speed="13.89" disallow="tram rail_urban rail rail_electric rail_fast ship" oneway="0"/>
    <type id="highway.secondary" priority="11" numLanes="1" speed="27.78" disallow="tram rail_urban rail rail_electric rail_fast ship" oneway="0"/>
    <type id="highway.service" priority="1" numLanes="1" speed="5.56" allow="pedestrian delivery bicycle" oneway="0"/>
    <type id="highway.steps" priority="1" numLanes="1" speed="1.39" allow="pedestrian" oneway="1" width="2.00"/>
    <type id="highway.tertiary" priority="10" numLanes="1" speed="22.22" disallow="tram rail_urban rail rail_electric rail_fast ship" oneway="0"/>
    <type id="highway.unclassified" priority="4" numLanes="1" speed="13.89" disallow="tram rail_urban rail rail_electric rail_fast ship" oneway="0"/>
    <type id="railway.tram" priority="17" numLanes="1" speed="13.89" allow="tram" oneway="1"/>

    <edge id=":10110866080_0" function="internal">
        <lane id=":10110866080_0_0" index="0" disallow="tram rail_urban rail rail_electric rail_fast ship" speed="3.65" length="4.67" shape="40.34,5641.19 41.78,5641.06 42.59,5641.44 42.78,5642.31 42.34,5643.69"/>
    </edge>
    <edge id=":10110866152_0" function="internal">
        <lane id=":10110866152_0_0" index="0" disallow="tram rail_urban rail rail_electric rail_fast ship" speed="3.65" length="4.67" shape="190.49,5864.69 190.04,5866.06 189.37,5866.66 188.49,5866.48 187.40,5865.54"/>
    </edge>
    <edge id=":1044671498_0" function="internal">
        <lane id=":1044671498_0_0" index="0" disallow="tram rail_urban rail rail_electric rail_fast ship" speed="3.65" length="4.67" shape="80.01,5587.52 78.61,5587.86 77.75,5587.61 77.44,5586.77 77.67,5585.34"/>
    </edge>
    <edge id=":1044671520_0" function="internal">
        <lane id=":1044671520_0_0" index="0" disallow="tram rail_urban rail rail_electric rail_fast ship" speed="3.65" length="4.67" shape="110.84,5635.89 110.14,5634.63 110.15,5633.74 110.87,5633.21 112.30,5633.04"/>
    </edge>
    <edge id=":1067862810_0" function="internal">
        <lane id=":1067862810_0_0" index="0" disallow="tram rail_urban rail rail_electric rail_fast ship" speed="6.54" length="9.16" shape="427.18,5544.84 424.65,5545.13 422.83,5546.14 421.72,5547.87 421.32,5550.32"/>
    </edge>
    <edge id=":1067862810_1" function="internal">
        <lane id=":1067862810_1_0" index="0" disallow="tram rail_urban rail rail_electric rail_fast ship" speed="7.91" length="14.40" shape="427.18,5544.84 423.26,5544.18 420.56,5542.43 419.07,5539.57 418.80,5535.60"/>
    </edge>
    <edge id=":1067862810_2" function="internal">
        <lane id=":1067862810_2_0" index="0" disallow="tram rail_urban rail rail_electric rail_fast ship" speed="3.65" length="4.67" shape="427.18,5544.84 426.00,5544.01 425.62,5543.20 426.04,5542.41 427.25,5541.64"/>
    </edge>
    <edge id=":1067862810_3" function="internal">
        <lane id=":1067862810_3_0" index="0" disallow="tram rail_urban rail rail_electric rail_fast ship" speed="6.39" length="9.04" shape="421.99,5535.84 422.16,5538.33 423.10,5540.13 424.79,5541.23 427.25,5541.64"/>
    </edge>
    <edge id=":1067862810_4" function="internal">
        <lane id=":1067862810_4_0" index="0" disallow="tram rail_urban rail rail_electric rail_fast ship" speed="22.22" length="14.49" shape="421.99,5535.84 421.32,5550.32"/>
    </edge>
    <edge id=":1067862810_5" function="internal">
        <lane id=":1067862810_5_0" index="0" disallow="tram rail_urban rail rail_electric rail_fast ship" speed="3.65" length="1.44" shape="421.99,5535.84 421.11,5536.98"/>
    </edge>
    <edge id=":1067862810_9" function="internal">
        <lane id=":1067862810_9_0" index="0" disallow="tram rail_urban rail rail_electric rail_fast ship" speed="3.65" length="3.23" shape="421.11,5536.98 420.28,5537.32 419.51,5536.86 418.80,5535.60"/>
    </edge>
    <edge id=":1067862810_6" function="internal">
        <lane id=":1067862810_6_0" index="0" disallow="tram rail_urban rail rail_electric rail_fast ship" speed="22.22" length="14.67" shape="418.12,5550.26 418.80,5535.60"/>
    </edge>
    <edge id=":1067862810_7" function="internal">
        <lane id=":1067862810_7_0" index="0" disallow="tram rail_urban rail rail_electric rail_fast ship" speed="8.03" length="4.27" shape="418.12,5550.26 418.75,5546.41 418.95,5546.10"/>
    </edge>
    <edge id=":1067862810_8" function="internal">
        <lane id=":1067862810_8_0" index="0" disallow="tram rail_urban rail rail_electric rail_fast ship" speed="3.65" length="1.44" shape="418.12,5550.26 418.94,5549.07"/>
    </edge>
    <edge id=":1067862810_10" function="internal">
        <lane id=":1067862810_10_0" index="0" disallow="tram rail_urban rail rail_electric rail_fast ship" speed="8.03" length="10.07" shape="418.95,5546.10 420.48,5543.69 423.32,5542.10 427.25,5541.64"/>
    </edge>
    <edge id=":1067862810_11" function="internal">
        <lane id=":1067862810_11_0" index="0" disallow="tram rail_urban rail rail_electric rail_fast ship" speed="3.65" length="3.23" shape="418.94,5549.07 419.75,5548.69 420.54,5549.10 421.32,5550.32"/>
    </edge>
    <edge id=":1067862929_0" function="internal">
        <lane id=":1067862929_0_0" index="0" disallow="tram rail_urban rail rail_electric rail_fast ship" speed="5.54" length="9.46" shape="432.17,5476.74 429.78,5475.01 428.01,5474.82 426.83,5476.17 426.25,5479.06"/>
    </edge>
    <edge id=":1067862929_1" function="internal">
        <lane id=":1067862929_1_0" index="0" disallow="tram rail_urban rail rail_electric rail_fast ship" speed="13.89" length="21.07" shape="432.17,5476.74 416.56,5462.58"/>
    </edge>
    <edge id=":1067862929_2" function="internal">
        <lane id=":1067862929_2_0" index="0" disallow="tram rail_urban rail rail_electric rail_fast ship" speed="13.62" length="20.85" shape="432.17,5476.74 429.17,5472.92 426.67,5467.89 425.04,5462.55 424.63,5457.77"/>
    </edge>
    <edge id=":1067862929_3" function="internal">
        <lane id=":1067862929_3_0" index="0" disallow="tram rail_urban rail rail_electric rail_fast ship" speed="3.65" length="4.67" shape="432.17,5476.74 431.83,5475.34 432.08,5474.48 432.92,5474.16 434.35,5474.39"/>
    </edge>
    <edge id=":1067862929_4" function="internal">
        <lane id=":1067862929_4_0" index="0" disallow="tram rail_urban rail rail_electric rail_fast ship" speed="12.76" length="18.26" shape="427.82,5458.00 427.96,5462.65 429.09,5466.93 431.22,5470.85 434.35,5474.39"/>
    </edge>
    <edge id=":1067862929_5" function="internal">
        <lane id=":1067862929_5_0" index="0" disallow="tram rail_urban rail rail_electric rail_fast ship" speed="22.22" length="21.11" shape="427.82,5458.00 426.25,5479.06"/>
    </edge>
    <edge id=":1067862929_6" function="internal">
        <lane id=":1067862929_6_0" index="0" disallow="tram rail_urban rail rail_electric rail_fast ship" speed="7.38" length="5.37" shape="427.82,5458.00 426.76,5463.27"/>
    </edge>
    <edge id=":1067862929_7" function="internal">
        <lane id=":1067862929_7_0" index="0" disallow="tram rail_urban rail rail_electric rail_fast ship" speed="3.65" length="1.44" shape="427.82,5458.00 426.93,5459.14"/>
    </edge>
    <edge id=":1067862929_16" function="internal">
        <lane id=":1067862929_16_0" index="0" disallow="tram rail_urban rail rail_electric rail_fast ship" speed="7.38" length="12.46" shape="426.76,5463.27 426.74,5463.41 424.50,5465.97 421.11,5465.70 416.56,5462.58"/>
    </edge>
    <edge id=":1067862929_17" function="internal">
        <lane id=":1067862929_17_0" index="0" disallow="tram rail_urban rail rail_electric rail_fast ship" speed="3.65" length="3.23" shape="426.93,5459.14 426.10,5459.48 425.34,5459.02 424.63,5457.77"/>
    </edge>
    <edge id=":1067862929_8" function="internal">
        <lane id=":1067862929_8_0" index="0" disallow="tram rail_urban rail rail_electric rail_fast ship" speed="5.55" length="9.42" shape="418.68,5460.19 421.08,5461.83 422.87,5461.98 424.06,5460.62 424.63,5457.77"/>
    </edge>
    <edge id=":1067862929_9" function="internal">
        <lane id=":1067862929_9_0" index="0" disallow="tram rail_urban rail rail_electric rail_fast ship" speed="13.89" length="21.15" shape="418.68,5460.19 434.35,5474.39"/>
    </edge>
    <edge id=":1067862929_10" function="internal">
        <lane id=":1067862929_10_0" index="0" disallow="tram rail_urban rail rail_electric rail_fast ship" speed="13.34" length="20.80" shape="418.68,5460.19 421.70,5463.91 424.21,5468.88 425.84,5474.23 426.25,5479.06"/>
    </edge>
    <edge id=":1067862929_11" function="internal">
        <lane id=":1067862929_11_0" index="0" disallow="tram rail_urban rail rail_electric rail_fast ship" speed="3.65" length="4.67" shape="418.68,5460.19 419.05,5461.58 418.82,5462.44 417.99,5462.78 416.56,5462.58"/>
    </edge>
    <edge id=":1067862929_12" function="internal">
        <lane id=":1067862929_12_0" index="0" disallow="tram rail_urban rail rail_electric rail_fast ship" speed="12.48" length="18.14" shape="423.06,5478.82 422.93,5474.12 421.81,5469.84 419.68,5466.00 416.56,5462.58"/>
    </edge>
    <edge id=":1067862929_13" function="internal">
        <lane id=":1067862929_13_0" index="0" disallow="tram rail_urban rail rail_electric rail_fast ship" speed="22.22" length="21.11" shape="423.06,5478.82 424.63,5457.77"/>
    </edge>
    <edge id=":1067862929_14" function="internal">
        <lane id=":1067862929_14_0" index="0" disallow="tram rail_urban rail rail_electric rail_fast ship" speed="7.38" length="5.45" shape="423.06,5478.82 424.13,5473.47"/>
    </edge>
    <edge id=":1067862929_15" function="internal">
        <lane id=":1067862929_15_0" index="0" disallow="tram rail_urban rail rail_electric rail_fast ship" speed="3.65" length="1.44" shape="423.06,5478.82 423.95,5477.68"/>
    </edge>
    <edge id=":1067862929_18" function="internal">
        <lane id=":1067862929_18_0" index="0" disallow="tram rail_urban rail rail_electric rail_fast ship" speed="7.38" length="12.60" shape="424.13,5473.47 424.16,5473.31 426.41,5470.74 429.80,5471.10 434.35,5474.39"/>
    </edge>
    <edge id=":1067862929_19" function="internal">
        <lane id=":1067862929_19_0" index="0" disallow="tram rail_urban rail rail_electric rail_fast ship" speed="3.65" length="3.23" shape="423.95,5477.68 424.78,5477.34 425.54,5477.80 426.25,5479.06"/>
    </edge>
    <edge id=":1067863004_0" function="internal">
        <lane id=":1067863004_0_0" index="0" disallow="tram rail_urban rail rail_electric rail_fast ship" speed="6.07" length="8.63" shape="452.86,5271.39 450.34,5270.69 448.36,5270.89 446.93,5272.00 446.05,5274.03"/>
    </edge>
    <edge id=":1067863004_1" function="internal">
        <lane id=":1067863004_1_0" index="0" disallow="tram rail_urban rail rail_electric rail_fast ship" speed="11.83" length="13.58" shape="452.86,5271.39 449.75,5269.68 447.14,5267.35 445.06,5264.40 443.49,5260.83"/>
        <lane id=":1067863004_1_1" index="1" disallow="tram rail_urban rail rail_electric rail_fast ship" speed="11.02" length="13.58" shape="454.84,5268.75 452.01,5267.23 449.68,5265.23 447.85,5262.76 446.53,5259.80"/>
    </edge>
    <edge id=":1067863004_3" function="internal">
        <lane id=":1067863004_3_0" index="0" disallow="tram rail_urban rail rail_electric rail_fast ship" speed="15.35" length="12.74" shape="442.94,5273.27 443.81,5270.10 444.41,5267.44 444.41,5264.58 443.49,5260.83"/>
    </edge>
    <edge id=":1067863004_4" function="internal">
        <lane id=":1067863004_4_0" index="0" disallow="tram rail_urban rail rail_electric rail_fast ship" speed="3.65" length="4.67" shape="442.94,5273.27 444.01,5272.29 444.88,5272.09 445.56,5272.67 446.05,5274.03"/>
    </edge>
    <edge id=":1067863061_0" function="internal">
        <lane id=":1067863061_0_0" index="0" disallow="tram rail_urban rail rail_electric rail_fast ship" speed="6.17" length="9.05" shape="404.30,5451.73 402.18,5450.34 400.21,5450.06 398.41,5450.89 396.78,5452.83"/>
    </edge>
    <edge id=":1067863061_1" function="internal">
        <lane id=":1067863061_1_0" index="0" disallow="tram rail_urban rail rail_electric rail_fast ship" speed="13.89" length="17.41" shape="404.30,5451.73 401.06,5449.19 397.22,5446.70 393.22,5444.46 389.48,5442.73"/>
    </edge>
    <edge id=":1067863061_2" function="internal">
        <lane id=":1067863061_2_0" index="0" disallow="tram rail_urban rail rail_electric rail_fast ship" speed="12.94" length="4.42" shape="404.30,5451.73 401.28,5448.51"/>
    </edge>
    <edge id=":1067863061_3" function="internal">
        <lane id=":1067863061_3_0" index="0" disallow="tram rail_urban rail rail_electric rail_fast ship" speed="3.65" length="1.44" shape="404.30,5451.73 403.93,5450.34"/>
    </edge>
    <edge id=":1067863061_16" function="internal">
        <lane id=":1067863061_16_0" index="0" disallow="tram rail_urban rail rail_electric rail_fast ship" speed="12.94" length="13.95" shape="401.28,5448.51 400.95,5448.17 398.61,5444.29 397.27,5440.08 396.93,5435.57"/>
    </edge>
    <edge id=":1067863061_17" function="internal">
        <lane id=":1067863061_17_0" index="0" disallow="tram rail_urban rail rail_electric rail_fast ship" speed="3.65" length="3.23" shape="403.93,5450.34 404.16,5449.48 404.99,5449.14 406.42,5449.34"/>
    </edge>
    <edge id=":1067863061_4" function="internal">
        <lane id=":1067863061_4_0" index="0" disallow="tram rail_urban rail rail_electric rail_fast ship" speed="12.18" length="16.23" shape="400.15,5434.94 400.43,5439.06 401.57,5442.83 403.57,5446.26 406.42,5449.34"/>
    </edge>
    <edge id=":1067863061_5" function="internal">
        <lane id=":1067863061_5_0" index="0" disallow="tram rail_urban rail rail_electric rail_fast ship" speed="13.89" length="18.35" shape="400.15,5434.94 399.92,5439.25 399.39,5444.17 398.39,5448.95 396.78,5452.83"/>
    </edge>
    <edge id=":1067863061_6" function="internal">
        <lane id=":1067863061_6_0" index="0" disallow="tram rail_urban rail rail_electric rail_fast ship" speed="7.73" length="16.70" shape="400.15,5434.94 399.33,5439.92 397.28,5442.87 393.99,5443.81 389.48,5442.73"/>
    </edge>
    <edge id=":1067863061_7" function="internal">
        <lane id=":1067863061_7_0" index="0" disallow="tram rail_urban rail rail_electric rail_fast ship" speed="3.68" length="4.79" shape="400.15,5434.94 399.58,5436.31 398.85,5436.87 397.97,5436.62 396.93,5435.57"/>
    </edge>
    <edge id=":1067863061_8" function="internal">
        <lane id=":1067863061_8_0" index="0" disallow="tram rail_urban rail rail_electric rail_fast ship" speed="5.96" length="9.42" shape="390.82,5439.82 393.40,5440.45 395.29,5439.95 396.46,5438.32 396.93,5435.57"/>
    </edge>
    <edge id=":1067863061_9" function="internal">
        <lane id=":1067863061_9_0" index="0" disallow="tram rail_urban rail rail_electric rail_fast ship" speed="13.89" length="18.34" shape="390.82,5439.82 394.68,5441.64 398.95,5444.04 403.06,5446.72 406.42,5449.34"/>
    </edge>
    <edge id=":1067863061_10" function="internal">
        <lane id=":1067863061_10_0" index="0" disallow="tram rail_urban rail rail_electric rail_fast ship" speed="7.92" length="5.89" shape="390.82,5439.82 393.97,5442.04 395.14,5443.70"/>
    </edge>
    <edge id=":1067863061_11" function="internal">
        <lane id=":1067863061_11_0" index="0" disallow="tram rail_urban rail rail_electric rail_fast ship" speed="3.65" length="1.44" shape="390.82,5439.82 391.57,5441.05"/>
    </edge>
    <edge id=":1067863061_18" function="internal">
        <lane id=":1067863061_18_0" index="0" disallow="tram rail_urban rail rail_electric rail_fast ship" speed="7.92" length="9.77" shape="395.14,5443.70 396.40,5445.48 397.53,5449.34 396.78,5452.83"/>
    </edge>
    <edge id=":1067863061_19" function="internal">
        <lane id=":1067863061_19_0" index="0" disallow="tram rail_urban rail rail_electric rail_fast ship" speed="3.65" length="3.23" shape="391.57,5441.05 391.60,5441.94 390.90,5442.50 389.48,5442.73"/>
    </edge>
    <edge id=":1067863061_12" function="internal">
        <lane id=":1067863061_12_0" index="0" disallow="tram rail_urban rail rail_electric rail_fast ship" speed="6.81" length="11.29" shape="394.06,5451.15 394.99,5448.66 394.54,5446.43 392.70,5444.45 389.48,5442.73"/>
    </edge>
    <edge id=":1067863061_13" function="internal">
        <lane id=":1067863061_13_0" index="0" disallow="tram rail_urban rail rail_electric rail_fast ship" speed="13.89" length="16.00" shape="394.06,5451.15 395.60,5447.62 396.42,5443.64 396.78,5439.51 396.93,5435.57"/>
    </edge>
    <edge id=":1067863061_14" function="internal">
        <lane id=":1067863061_14_0" index="0" disallow="tram rail_urban rail rail_electric rail_fast ship" speed="7.73" length="14.87" shape="394.06,5451.15 396.75,5447.95 399.71,5446.58 402.93,5447.04 406.42,5449.34"/>
    </edge>
    <edge id=":1067863061_15" function="internal">
        <lane id=":1067863061_15_0" index="0" disallow="tram rail_urban rail rail_electric rail_fast ship" speed="3.65" length="4.67" shape="394.06,5451.15 395.37,5450.55 396.26,5450.63 396.73,5451.39 396.78,5452.83"/>
    </edge>
    <edge id=":1093607787_0" function="internal">
        <lane id=":1093607787_0_0" index="0" disallow="tram rail_urban rail rail_electric rail_fast ship" speed="13.89" length="14.89" shape="654.19,5661.75 652.21,5658.59 650.32,5655.40 648.51,5652.16 646.77,5648.86"/>
    </edge>
    <edge id=":1093607787_1" function="internal">
        <lane id=":1093607787_1_0" index="0" disallow="tram rail_urban rail rail_electric rail_fast ship" speed="7.93" length="4.20" shape="654.19,5661.75 652.54,5658.15 652.54,5657.91"/>
    </edge>
    <edge id=":1093607787_2" function="internal">
        <lane id=":1093607787_2_0" index="0" disallow="tram rail_urban rail rail_electric rail_fast ship" speed="3.65" length="1.44" shape="654.19,5661.75 654.21,5660.31"/>
    </edge>
    <edge id=":1093607787_9" function="internal">
        <lane id=":1093607787_9_0" index="0" disallow="tram rail_urban rail rail_electric rail_fast ship" speed="7.93" length="10.20" shape="652.54,5657.91 652.48,5654.93 654.01,5652.08 657.12,5649.60"/>
    </edge>
    <edge id=":1093607787_10" function="internal">
        <lane id=":1093607787_10_0" index="0" disallow="tram rail_urban rail rail_electric rail_fast ship" speed="3.65" length="3.23" shape="654.21,5660.31 654.67,5659.54 655.56,5659.44 656.88,5660.02"/>
    </edge>
    <edge id=":1093607787_3" function="internal">
        <lane id=":1093607787_3_0" index="0" disallow="tram rail_urban rail rail_electric rail_fast ship" speed="6.42" length="9.07" shape="658.74,5652.37 656.77,5653.93 655.81,5655.72 655.84,5657.75 656.88,5660.02"/>
    </edge>
    <edge id=":1093607787_4" function="internal">
        <lane id=":1093607787_4_0" index="0" disallow="tram rail_urban rail rail_electric rail_fast ship" speed="7.90" length="14.42" shape="658.74,5652.37 655.05,5653.87 651.83,5653.78 649.07,5652.11 646.77,5648.86"/>
    </edge>
    <edge id=":1093607787_5" function="internal">
        <lane id=":1093607787_5_0" index="0" disallow="tram rail_urban rail rail_electric rail_fast ship" speed="3.65" length="4.67" shape="658.74,5652.37 657.30,5652.28 656.55,5651.79 656.49,5650.90 657.12,5649.60"/>
    </edge>
    <edge id=":1093607787_6" function="internal">
        <lane id=":1093607787_6_0" index="0" disallow="tram rail_urban rail rail_electric rail_fast ship" speed="6.38" length="9.04" shape="649.62,5647.40 651.06,5649.44 652.79,5650.49 654.81,5650.54 657.12,5649.60"/>
    </edge>
    <edge id=":1093607787_7" function="internal">
        <lane id=":1093607787_7_0" index="0" disallow="tram rail_urban rail rail_electric rail_fast ship" speed="13.89" length="14.56" shape="649.62,5647.40 651.33,5650.66 653.09,5653.81 654.92,5656.90 656.88,5660.02"/>
    </edge>
    <edge id=":1093607787_8" function="internal">
        <lane id=":1093607787_8_0" index="0" disallow="tram rail_urban rail rail_electric rail_fast ship" speed="3.65" length="1.44" shape="649.62,5647.40 649.45,5648.84"/>
    </edge>
    <edge id=":1093607787_11" function="internal">
        <lane id=":1093607787_11_0" index="0" disallow="tram rail_urban rail rail_electric rail_fast ship" speed="3.65" length="3.23" shape="649.45,5648.84 648.92,5649.56 648.03,5649.56 646.77,5648.86"/>
    </edge>
    <edge id=":1093607848_0" function="internal">
        <lane id=":1093607848_0_0" index="0" allow="pedestrian delivery bicycle" speed="9.72" length="12.19" shape="793.84,5693.93 791.76,5705.95"/>
    </edge>
    <edge id=":1093607848_1" function="internal">
        <lane id=":1093607848_1_0" index="0" disallow="tram rail_urban rail rail_electric rail_fast ship" speed="7.85" length="14.53" shape="793.84,5693.93 792.68,5697.80 790.57,5700.25 787.50,5701.29 783.49,5700.91"/>
    </edge>
    <edge id=":1093607848_2" function="internal">
        <lane id=":1093607848_2_0" index="0" disallow="tram rail_urban rail rail_electric rail_fast ship" speed="6.33" length="9.04" shape="784.23,5697.80 786.73,5698.03 788.64,5697.39 789.95,5695.86 790.67,5693.46"/>
    </edge>
    <edge id=":1093607848_3" function="internal">
        <lane id=":1093607848_3_0" index="0" allow="pedestrian delivery bicycle" speed="7.61" length="2.92" shape="784.23,5697.80 786.99,5698.75"/>
    </edge>
    <edge id=":1093607848_7" function="internal">
        <lane id=":1093607848_7_0" index="0" allow="pedestrian delivery bicycle" speed="7.61" length="9.53" shape="786.99,5698.75 788.00,5699.10 790.51,5700.89 791.77,5703.17 791.76,5705.95"/>
    </edge>
    <edge id=":1093607848_4" function="internal">
        <lane id=":1093607848_4_0" index="0" allow="pedestrian delivery bicycle" speed="6.03" length="7.45" shape="788.63,5705.29 788.55,5703.89 787.66,5702.70 785.97,5701.71 783.49,5700.91"/>
    </edge>
    <edge id=":1093607848_5" function="internal">
        <lane id=":1093607848_5_0" index="0" allow="pedestrian delivery bicycle" speed="9.72" length="12.00" shape="788.63,5705.29 790.67,5693.46"/>
    </edge>
    <edge id=":1093607848_6" function="internal">
        <lane id=":1093607848_6_0" index="0" allow="pedestrian delivery bicycle" speed="3.65" length="4.67" shape="788.63,5705.29 789.66,5704.28 790.53,5704.05 791.23,5704.61 791.76,5705.95"/>
    </edge>
    <edge id=":1093607856_0" function="internal">
        <lane id=":1093607856_0_0" index="0" disallow="tram rail_urban rail rail_electric rail_fast ship" speed="3.65" length="4.67" shape="844.00,5576.85 843.39,5578.15 842.66,5578.67 841.81,5578.40 840.84,5577.33"/>
    </edge>
    <edge id=":1093607913_0" function="internal">
        <lane id=":1093607913_0_0" index="0" disallow="tram rail_urban rail rail_electric rail_fast ship" speed="13.89" length="20.91" shape="709.27,5683.19 704.70,5682.19 699.02,5681.03 693.33,5680.05 688.69,5679.61"/>
    </edge>
    <edge id=":1093607913_1" function="internal">
        <lane id=":1093607913_1_0" index="0" disallow="tram rail_urban rail rail_electric rail_fast ship" speed="6.46" length="2.41" shape="709.27,5683.19 707.19,5681.98"/>
    </edge>
    <edge id=":1093607913_2" function="internal">
        <lane id=":1093607913_2_0" index="0" disallow="tram rail_urban rail rail_electric rail_fast ship" speed="3.65" length="1.44" shape="709.27,5683.19 708.27,5682.16"/>
    </edge>
    <edge id=":1093607913_9" function="internal">
        <lane id=":1093607913_9_0" index="0" disallow="tram rail_urban rail rail_electric rail_fast ship" speed="6.46" length="13.30" shape="707.19,5681.98 705.71,5681.12 704.46,5677.72 705.54,5674.16 708.92,5671.59"/>
    </edge>
    <edge id=":1093607913_10" function="internal">
        <lane id=":1093607913_10_0" index="0" disallow="tram rail_urban rail rail_electric rail_fast ship" speed="3.65" length="3.23" shape="708.27,5682.16 708.05,5681.29 708.61,5680.59 709.95,5680.06"/>
    </edge>
    <edge id=":1093607913_3" function="internal">
        <lane id=":1093607913_3_0" index="0" disallow="tram rail_urban rail rail_electric rail_fast ship" speed="5.51" length="10.91" shape="709.72,5674.70 706.35,5676.30 705.26,5677.72 706.46,5678.98 709.95,5680.06"/>
    </edge>
    <edge id=":1093607913_4" function="internal">
        <lane id=":1093607913_4_0" index="0" disallow="tram rail_urban rail rail_electric rail_fast ship" speed="13.89" length="21.66" shape="709.72,5674.70 705.16,5676.21 699.32,5677.83 693.43,5679.11 688.69,5679.61"/>
    </edge>
    <edge id=":1093607913_5" function="internal">
        <lane id=":1093607913_5_0" index="0" disallow="tram rail_urban rail rail_electric rail_fast ship" speed="3.66" length="4.70" shape="709.72,5674.70 708.35,5674.23 707.76,5673.55 707.95,5672.67 708.92,5671.59"/>
    </edge>
    <edge id=":1093607913_6" function="internal">
        <lane id=":1093607913_6_0" index="0" disallow="tram rail_urban rail rail_electric rail_fast ship" speed="13.89" length="20.82" shape="688.73,5676.41 693.34,5675.93 698.94,5674.68 704.49,5673.09 708.92,5671.59"/>
    </edge>
    <edge id=":1093607913_7" function="internal">
        <lane id=":1093607913_7_0" index="0" disallow="tram rail_urban rail rail_electric rail_fast ship" speed="13.89" length="21.55" shape="688.73,5676.41 693.47,5676.86 699.38,5677.86 705.27,5679.06 709.95,5680.06"/>
    </edge>
    <edge id=":1093607913_8" function="internal">
        <lane id=":1093607913_8_0" index="0" disallow="tram rail_urban rail rail_electric rail_fast ship" speed="3.65" length="1.44" shape="688.73,5676.41 689.92,5677.22"/>
    </edge>
    <edge id=":1093607913_11" function="internal">
        <lane id=":1093607913_11_0" index="0" disallow="tram rail_urban rail rail_electric rail_fast ship" speed="3.65" length="3.23" shape="689.92,5677.22 690.31,5678.03 689.90,5678.82 688.69,5679.61"/>
    </edge>
    <edge id=":1093607933_0" function="internal">
        <lane id=":1093607933_0_0" index="0" disallow="tram rail_urban rail rail_electric rail_fast ship" speed="13.89" length="16.91" shape="807.56,5593.63 805.72,5597.27 803.85,5601.30 802.35,5605.43 801.65,5609.37"/>
    </edge>
    <edge id=":1093607933_1" function="internal">
        <lane id=":1093607933_1_0" index="0" disallow="tram rail_urban rail rail_electric rail_fast ship" speed="7.53" length="20.97" shape="807.56,5593.63 803.87,5599.45 800.70,5601.14 798.06,5598.71 795.95,5592.15"/>
    </edge>
    <edge id=":1093607933_2" function="internal">
        <lane id=":1093607933_2_0" index="0" disallow="tram rail_urban rail rail_electric rail_fast ship" speed="3.65" length="4.67" shape="807.56,5593.63 806.31,5594.34 805.42,5594.34 804.88,5593.63 804.70,5592.20"/>
    </edge>
    <edge id=":1093607933_3" function="internal">
        <lane id=":1093607933_3_0" index="0" disallow="tram rail_urban rail rail_electric rail_fast ship" speed="5.46" length="10.16" shape="799.08,5591.48 800.10,5594.66 801.38,5595.84 802.91,5595.01 804.70,5592.20"/>
    </edge>
    <edge id=":1093607933_4" function="internal">
        <lane id=":1093607933_4_0" index="0" disallow="tram rail_urban rail rail_electric rail_fast ship" speed="13.89" length="18.11" shape="799.08,5591.48 799.95,5595.63 800.84,5600.38 801.49,5605.15 801.65,5609.37"/>
    </edge>
    <edge id=":1093607933_5" function="internal">
        <lane id=":1093607933_5_0" index="0" disallow="tram rail_urban rail rail_electric rail_fast ship" speed="3.65" length="1.44" shape="799.08,5591.48 798.54,5592.82"/>
    </edge>
    <edge id=":1093607933_9" function="internal">
        <lane id=":1093607933_9_0" index="0" disallow="tram rail_urban rail rail_electric rail_fast ship" speed="3.65" length="3.23" shape="798.54,5592.82 797.85,5593.38 796.98,5593.15 795.95,5592.15"/>
    </edge>
    <edge id=":1093607933_6" function="internal">
        <lane id=":1093607933_6_0" index="0" disallow="tram rail_urban rail rail_electric rail_fast ship" speed="13.89" length="17.30" shape="798.45,5609.23 798.30,5605.14 797.67,5600.65 796.81,5596.18 795.95,5592.15"/>
    </edge>
    <edge id=":1093607933_7" function="internal">
        <lane id=":1093607933_7_0" index="0" disallow="tram rail_urban rail rail_electric rail_fast ship" speed="13.89" length="3.28" shape="798.45,5609.23 799.04,5606.00"/>
    </edge>
    <edge id=":1093607933_8" function="internal">
        <lane id=":1093607933_8_0" index="0" disallow="tram rail_urban rail rail_electric rail_fast ship" speed="3.65" length="1.44" shape="798.45,5609.23 799.31,5608.06"/>
    </edge>
    <edge id=":1093607933_10" function="internal">