<?xml version="1.0" encoding="UTF-8"?>

<!-- generated on 2023-07-17 06:20:45.727687 by randomTrips.py UNKNOWN
<configuration>
    <net-file value="dadi.net.xml"/>
    <route-file value="dadi.rou.xml"/>
    <end value="100.0"/>
    <length value="True"/>
</configuration>
-->

<!-- generated on 2023-07-17 06:20:45 by Eclipse SUMO duarouter Version 1.18.0
<configuration xmlns:xsi="http://www.w3.org/2001/XMLSchema-instance" xsi:noNamespaceSchemaLocation="http://sumo.dlr.de/xsd/duarouterConfiguration.xsd">

    <input>
        <net-file value="dadi.net.xml"/>
        <route-files value="trips.trips.xml"/>
    </input>

    <output>
        <output-file value="dadi.rou.xml"/>
        <alternatives-output value="NUL"/>
    </output>

    <time>
        <begin value="0"/>
        <end value="100.0"/>
    </time>

    <report>
        <no-warnings value="true"/>
        <ignore-errors value="true"/>
        <no-step-log value="true"/>
    </report>

</configuration>
-->

<routes xmlns:xsi="http://www.w3.org/2001/XMLSchema-instance" xsi:noNamespaceSchemaLocation="http://sumo.dlr.de/xsd/routes_file.xsd">
    <vehicle id="0" depart="0.00">
        <route edges="159153558#0 -159153558#0 151061664#2 151061664#3 151061664#4 91903010#0 -91903019#3 -91903019#2 -91903019#1 -154251968#2 -154251968#1 -154251968#0 57745933#2 -29249105#1 -150810780#5 -150810780#4 -150810780#3 -150810780#2 -150810780#1 -150810780#0"/>
    </vehicle>
    <vehicle id="2" depart="2.00">
        <route edges="370418506#0 370418506#1 -159153558#0 151061664#2 151061664#3 151061664#4 91903010#0 -91903019#3 -91903019#2 -91903019#1 -154251968#2 -154251968#1 -154251968#0 57745933#2 57745933#3 57745933#4 297176724 272557342#0 272557342#1 272557342#2 272557342#3 29249160"/>
    </vehicle>
    <vehicle id="3" depart="3.00">
        <route edges="827139083 154251981#0 154251981#1 151061664#4 91903010#0 -91903019#3 -91903019#2 -91903019#1 -154251968#2 -154251968#1 -154251968#0 57745933#2 57745933#3 57745933#4 297176724 272557342#0 272557342#1 272557342#2 -150810805#1 -150810805#0"/>
    </vehicle>
    <vehicle id="4" depart="4.00">
        <route edges="-94064284#1 -94064284#0 272557339 -57745933#4 -57745933#3 -29249105#1 -150810780#5 -150810780#4 -150810780#3 -150810780#2 -150810780#1 -150810780#0"/>
    </vehicle>
    <vehicle id="5" depart="5.00">
        <route edges="-370418515 370418515 -370418514#3 -370418514#2 -370418514#1 -154251968#0 57745933#2 -29249105#1 -150810780#5 -150810780#4 -150810793#1 150810785#6 -150810784#0 150810778#3"/>
    </vehicle>
    <vehicle id="6" depart="6.00">
        <route edges="-150810785#6 -150810785#5 -150810785#4 -150810785#3 -150810785#2 -150810785#1 -150810785#0 -57745933#3 -57745933#2 154251968#0 154251968#1 -29251413#6 -29251413#5 -29251413#4 -29251413#3 -29251413#2"/>
    </vehicle>
    <vehicle id="8" depart="8.00">
        <route edges="-370418515 637653407#0 637653407#1 637653407#2 -151593758 151593758"/>
    </vehicle>
    <vehicle id="9" depart="9.00">
        <route edges="57745195#0 57745195#1 57745195#2 57745197 57745194#3 57745194#4 57745194#5 385021586 385021588#0 385021588#1 370418515 -370418514#3 -370418514#2 -370418514#1 -154251968#0 57745933#2 -29249105#1 -150810780#5 -150810780#4 -150810793#1 -150810793#0 -150810778#3 -150810778#2 -150810778#1 -150810778#0"/>
    </vehicle>
    <vehicle id="10" depart="10.00">
        <route edges="57745195#0 57745195#1 57745195#2 57745197 57745194#3 57745194#4 57745194#5 385021586 385021588#0 385021588#1 637653407#0 637653407#1 637653407#2 -151593758 -94064278 -94064284#2 -94064284#1 -94064284#0 357009406#1 272557342#0 272557342#1 272557342#2 272557342#3 29249160"/>
    </vehicle>
    <vehicle id="11" depart="11.00">
        <route edges="-827139086#1 -827139086#0 -151061666#2 -151061666#1 -151061666#0 -91903019#5 -91903019#4 91903010#1 -151593760#4 -151593760#3 -151593760#2 -151593760#1"/>
    </vehicle>
    <vehicle id="12" depart="12.00">
        <route edges="91903023#2 370409849#0 57745195#2 57745197 57745194#3 57745194#4 57745194#5 385021586 385021588#0 385021588#1 370418515 -370418514#3 -370418514#2 -370418514#1 -154251968#0 -57745933#1 -57745933#0"/>
    </vehicle>
    <vehicle id="13" depart="13.00">
        <route edges="-151593760#1 -151593760#0 -370418514#3 -370418514#2 -370418514#1 -154251968#0 57745933#2 57745933#3 57745933#4 297176724 272557342#0 272557342#1 272557342#2 -150810805#1 -150810805#0"/>
    </vehicle>
    <vehicle id="14" depart="14.00">
        <route edges="57745933#2 -57745933#2 154251968#0 154251968#1 154251968#2 91903019#1 91903019#2 91903019#3 -91903010#0 -151061664#4 -154251981#1 -154251981#0 827139082 154251966"/>
    </vehicle>
    <vehicle id="15" depart="15.00">
        <route edges="57745195#0 57745195#1 57745195#2 57745197 57745194#3 57745194#4 57745194#5 385021586 29251413#0 29251413#1 29251413#2 29251413#3 29251413#4 29251413#5 29251413#6 29251413#7"/>
    </vehicle>
    <vehicle id="16" depart="16.00">
        <route edges="150810805#0 -150810779#1 -150810779#0 -150810785#3 -150810785#2 -150810785#1 -150810785#0 -57745933#3 -57745933#2 154251968#0 370418514#1 370418514#2 370418514#3 -370418515 637653407#0 637653407#1 637653407#2 637653407#3 637653407#4 94064280"/>
    </vehicle>
    <vehicle id="17" depart="17.00">
        <route edges="-91903019#5 -91903019#4 -91903010#0 151061657#0 151061657#1 151061657#2"/>
    </vehicle>
    <vehicle id="18" depart="18.00">
        <route edges="57745933#0 57745933#1 -57745933#1 -57745933#0 154251977"/>
    </vehicle>
    <vehicle id="19" depart="19.00">
        <route edges="637653407#2 -637653407#2 -637653407#1 -637653407#0 -385021588#1 -385021588#0 27712336 57745194#1 57745194#2 57745194#3 -91903010#2 -91903010#1 -91903010#0 -151061664#4 -154251981#1 151061675"/>
    </vehicle>
    <vehicle id="21" depart="21.00">
        <route edges="-57745192#0 57745192#0 -370409849#1 -57745195#1 -57745195#0"/>
    </vehicle>
    <vehicle id="22" depart="22.00">
        <route edges="-151061675 154251981#1 151061664#4 91903010#0 91903010#1 -151593760#4 -151593760#3 -151593760#2 -29251413#2 -370409848"/>
    </vehicle>
    <vehicle id="23" depart="23.00">
        <route edges="-154251966 154251966 151061664#3 151061664#4 91903010#0 91903010#1 91903010#2 57745194#4 57745194#5 385021586 -57745192#1 -57745192#0"/>
    </vehicle>
    <vehicle id="24" depart="24.00">
        <route edges="154819967 150810785#1 29249105#0 29249105#1 -57745933#2 154251968#0 370418514#1 370418514#2 370418514#3 -370418515 637653407#0 637653407#1 637653407#2 -637653407#2"/>
    </vehicle>
    <vehicle id="25" depart="25.00">
        <route edges="-91903019#1 -154251968#2 29251413#7 -29251413#7"/>
    </vehicle>
    <vehicle id="26" depart="26.00">
        <route edges="-57745933#2 154251968#0 154251968#1 154251968#2 91903019#1 91903019#2 91903019#3"/>
    </vehicle>
    <vehicle id="29" depart="29.00">
        <route edges="-29251413#6 -29251413#5 -29251413#4 -29251413#3 -29251413#2 -29251413#1 -29251413#0 27712336 57745194#1 57745196 -57745195#2 -57745195#1 -687380297"/>
    </vehicle>
    <vehicle id="31" depart="31.00">
        <route edges="151061659 -91903019#5 -91903019#4 -91903019#3 -91903019#2 -91903019#1 -154251968#2 -154251968#1 -154251968#0 57745933#2 57745933#3 57745933#4 297176724 272557342#0 272557342#1 272557342#2 272557342#3 29249160"/>
    </vehicle>
    <vehicle id="32" depart="32.00">
        <route edges="57745933#2 -57745933#2 154251968#0 -370418514#0 370418514#0"/>
    </vehicle>
    <vehicle id="33" depart="33.00">
        <route edges="-57745192#0 57745192#0 57745192#1 29251413#0 29251413#1 29251413#2 29251413#3 29251413#4 29251413#5 29251413#6 -154251968#1 -154251968#0 57745933#2 -29249105#1 -150810780#5 -150810780#4 -150810780#3 -150810780#2 -150810780#1 -150810780#0"/>
    </vehicle>
    <vehicle id="34" depart="34.00">
        <route edges="-827139083 -151061650 -151061657#0 91903010#0 91903010#1 -151593760#4 -151593760#3 -151593760#2 -151593760#1 -151593760#0 -370418515"/>
    </vehicle>
    <vehicle id="35" depart="35.00">
        <route edges="-370418514#2 -370418514#1 154251968#1 154251968#2 91903019#1 91903019#2 91903019#3 91903019#4 91903019#5"/>
    </vehicle>
    <vehicle id="36" depart="36.00">
        <route edges="687380297 -57745195#0"/>
    </vehicle>
    <vehicle id="38" depart="38.00">
        <route edges="827139086#2 827139086#3 -827139086#3 -827139086#2 -827139086#1 -827139086#0 -151061666#2 -151061666#1 -151061666#0 -91903019#5 91903023#0 91903023#1 91903023#2 -91903023#2"/>
    </vehicle>
    <vehicle id="39" depart="39.00">
        <route edges="-57745933#1 -57745933#0 154251977 385021585#0 91903019#0 91903019#1 91903019#2 91903019#3 -91903010#0 -151061664#4 -151061664#3 -151061664#2 159153558#0 -370418506#1 -370418506#0"/>
    </vehicle>
    <vehicle id="40" depart="40.00">
        <route edges="151061664#3 151061664#4 91903010#0 91903010#1 -151593760#4 -151593760#3 -151593760#2 -151593760#1 -151593760#0 -370418515"/>
    </vehicle>
    <vehicle id="41" depart="41.00">
        <route edges="151061675 827139083 827139082 827139085#0 827139085#1 827139085#2"/>
    </vehicle>
    <vehicle id="43" depart="43.00">
        <route edges="94064286 94064280 -94064278 -94064284#2 -94064284#1 -94064284#0 357009406#1 272557342#0 272557342#1 272557342#2 -150810805#1 -150810779#1 150810779#1"/>
    </vehicle>
    <vehicle id="44" depart="44.00">
        <route edges="-151593758 -94064278 -94064284#2 -94064284#1 -94064284#0 272557339 -57745933#4 -57745933#3 -29249105#1 -150810780#5 -150810780#4 -150810780#3 -150810780#2 -150810780#1 -150810780#0"/>
    </vehicle>
    <vehicle id="45" depart="45.00">
        <route edges="-154251968#1 154251968#1 154251968#2 91903019#1 91903019#2 91903019#3 -91903010#0 -151061664#4 -154251981#1 154251981#1"/>
    </vehicle>
    <vehicle id="46" depart="46.00">
        <route edges="57745195#0 57745195#1 57745195#2 57745197 57745194#3 -91903010#2 -91903010#1 91903019#4 91903019#5 151061666#0 151061666#1 -90115568"/>
    </vehicle>
    <vehicle id="47" depart="47.00">
        <route edges="-151061665#3 151061665#3 151061664#1 151061664#2 151061664#3 151061664#4 91903010#0 91903010#1 91903010#2 57745194#4 57745194#5 57745194#6 57745194#0 57745194#1 57745196 -57745195#2 -57745195#1 -687380297"/>
    </vehicle>
    <vehicle id="48" depart="48.00">
        <route edges="94064284#3 151593748 -151593748 -94064284#3 -94064284#2 -94064284#1 -94064284#0 272557339 -57745933#4 150810785#0 150810785#1 150810785#2 150810785#3 150810785#4 150810785#5 150810793#1"/>
    </vehicle>
    <vehicle id="49" depart="49.00">
        <route edges="94064278 151593758 -637653407#2 -637653407#1 -637653407#0 -385021588#1 -385021588#0 27712336 57745194#1 57745194#2 57745194#3 -91903010#2 -91903010#1 -91903010#0 -151061664#4 -151061664#3 687380292#0"/>
    </vehicle>
    <vehicle id="50" depart="50.00">
        <route edges="-150810780#2 150810780#2 150810780#3 150810780#4 150810780#5 29249105#1 -57745933#2 154251968#0 154251968#1 -29251413#6 -29251413#5 -29251413#4 -29251413#3 -29251413#2 29251413#2"/>
    </vehicle>
    <vehicle id="51" depart="51.00">
        <route edges="29251413#2 29251413#3 29251413#4 29251413#5 29251413#6 -154251968#1 -154251968#0 57745933#2 -29249105#1 -150810780#5 -150810780#4 -150810780#3 -150810780#2 -150810780#1 150810803#1"/>
    </vehicle>
    <vehicle id="53" depart="53.00">
        <route edges="-154251968#2 154251968#2 -91903019#0"/>
    </vehicle>
    <vehicle id="54" depart="54.00">
        <route edges="150810778#1 150810778#2 150810778#3 150810793#0 -150810785#5 -150810785#4 -150810785#3 -150810785#2 -150810785#1 -150810785#0 -57745933#3 -57745933#2 154251968#0 154251968#1 154251968#2 91903019#1 91903019#2 91903019#3 91903019#4 91903023#0 91903023#1 91903023#2"/>
    </vehicle>
    <vehicle id="55" depart="55.00">
        <route edges="687380297 57745195#1 57745195#2 57745197 57745194#3 57745194#4 57745194#5 385021586 385021588#0 385021588#1 370418515 -370418515"/>
    </vehicle>
    <vehicle id="56" depart="56.00">
        <route edges="150810784#1 150810780#3 150810780#4 150810780#5 29249105#1 -57745933#2 154251968#0 154251968#1 154251968#2 91903019#1 91903019#2 91903019#3 91903010#1 -151593760#4 -151593760#3 -154251976"/>
    </vehicle>
    <vehicle id="57" depart="57.00">
        <route edges="827139086#2 827139086#3 -827139086#3 -827139086#2 -827139086#1 -827139086#0 -151061666#2 -151061666#1 -151061666#0 -91903019#5 91903023#0 91903023#1 91903023#2 370409849#0 -57745195#1 -687380297 687380297"/>
    </vehicle>
    <vehicle id="58" depart="58.00">
        <route edges="-687380297 687380297 57745195#1 57745195#2 57745197 57745194#3 57745194#4 57745194#5 385021586 385021588#0 385021588#1 637653407#0 637653407#1 637653407#2 -151593758 -94064278 -94064284#2 -94064284#1 -94064284#0 272557339 208441847#0 208441847#1"/>
    </vehicle>
    <vehicle id="59" depart="59.00">
        <route edges="154251966 151061664#3 151061664#4 91903010#0 91903010#1 91903010#2 57745194#4 57745194#5 385021586 385021588#0 385021588#1 637653407#0 637653407#1 637653407#2 -151593758"/>
    </vehicle>
    <vehicle id="60" depart="60.00">
        <route edges="385021588#1 370418515 -370418514#3 -370418514#2 -370418514#1 -154251968#0 57745933#2 -29249105#1 -150810780#5 -150810780#4 -150810780#3 -150810780#2 -150810780#1 150810803#1"/>
    </vehicle>
    <vehicle id="61" depart="61.00">
        <route edges="57745192#1 29251413#0 29251413#1 29251413#2 29251413#3 29251413#4 29251413#5 29251413#6 -154251968#1 -154251968#0 57745933#2 -29249105#1 -150810780#5 -150810780#4 150810793#2"/>
    </vehicle>
    <vehicle id="62" depart="62.00">
        <route edges="-150810778#1 -150810803#1 150810780#1 150810780#2 150810780#3 150810780#4 150810780#5 29249105#1 -57745933#2 154251968#0 370418514#1 370418514#2 370418514#3 -370418515 -385021588#1 -385021588#0 27712336 57745194#1 57745196 -57745195#2 -57745195#1"/>
    </vehicle>
    <vehicle id="63" depart="63.00">
        <route edges="-150810782#1 -150810782#0 -150810785#2 -150810785#1 -150810785#0 -57745933#3 -57745933#2 154251968#0 154251968#1 29251413#7 385021585#0 91903019#0"/>
    </vehicle>
    <vehicle id="64" depart="64.00">
        <route edges="687380297 57745195#1 57745195#2 57745197 57745194#3 57745194#4 57745194#5 385021586 385021588#0 385021588#1 370418515 -370418514#3 -370418514#2 -370418514#1 -154251968#0 -57745933#1 -57745933#0 57745933#0 57745933#1"/>
    </vehicle>
    <vehicle id="65" depart="65.00">
        <route edges="-687380297 687380297 57745195#1 57745195#2 57745197 57745194#3 57745194#4 57745194#5 385021586 385021588#0 385021588#1 637653407#0 637653407#1 637653407#2 -151593758 -94064278 -94064284#2 -94064284#1 -94064284#0 357009406#1 272557342#0 272557342#1 -150810782#1 -150810782#0"/>
    </vehicle>
    <vehicle id="66" depart="66.00">
        <route edges="687380297 57745195#1 57745195#2 57745197 57745194#3 -91903010#2 -91903010#1 91903019#4 91903023#0"/>
    </vehicle>
    <vehicle id="67" depart="67.00">
        <route edges="-151593748 -94064284#3 -94064284#2 -94064284#1"/>
    </vehicle>
    <vehicle id="68" depart="68.00">
        <route edges="-151061666#1 -151061666#0 -91903019#5 91903023#0 91903023#1 91903023#2 370409849#0 370409849#1 370409849#2"/>
    </vehicle>
    <vehicle id="69" depart="69.00">
        <route edges="57745192#0 -370409849#1 57745195#2 57745197 57745194#3 -91903010#2 -91903010#1 -91903010#0 -151061664#4 -151061664#3 -151061664#2 -151061664#1 -151061665#3 -151061665#2"/>
    </vehicle>
    <vehicle id="70" depart="70.00">
        <route edges="150810780#0 150810780#1 150810780#2 150810780#3 150810780#4 150810780#5 29249105#1 -57745933#2 154251968#0 154251968#1 154251968#2 91903019#1 91903019#2 91903019#3 -91903010#0 151061657#0 151061657#1 151061657#2"/>
    </vehicle>
    <vehicle id="71" depart="71.00">
        <route edges="-57745933#1 -57745933#0 154251977 -29251413#7 -29251413#6 -29251413#5 -29251413#4 -29251413#3 -29251413#2 -29251413#1 -29251413#0 27712336 57745194#1 57745196 -57745195#2 -57745195#1 -687380297 687380297"/>
    </vehicle>
    <vehicle id="72" depart="72.00">
        <route edges="-94064284#1 -94064284#0 272557339 -57745933#4 -57745933#3 -57745933#2 -57745933#1 -57745933#0 154251977 -29251413#7"/>
    </vehicle>
    <vehicle id="73" depart="73.00">
        <route edges="150810805#0 -150810779#1 -150810779#0 -150810785#3 -150810785#2 -150810785#1 -150810785#0 -57745933#3 -57745933#2 154251968#0 154251968#1 29251413#7"/>
    </vehicle>
    <vehicle id="74" depart="74.00">
        <route edges="-370418506#0 370418506#0 370418506#1 -159153558#0 151061664#2 151061664#3 151061664#4 91903010#0 91903010#1 91903010#2 57745194#4 57745194#5 57745194#6 57745194#0 57745194#1 57745196 -57745195#2 -57745195#1 -57745195#0"/>
    </vehicle>
    <vehicle id="75" depart="75.00">
        <route edges="94064284#3 151593748 -151593748 -94064284#3 -94064284#2 -94064284#1 -94064284#0 357009406#1 272557342#0 272557342#1 272557342#2 272557342#3 29249160"/>
    </vehicle>
    <vehicle id="76" depart="76.00">
        <route edges="-94064286 94064286 94064280 -94064278 -94064284#2 -94064284#1 -94064284#0 272557339 -57745933#4 150810785#0 150810785#1 150810785#2 150810785#3 150810785#4 150810796 150810780#5"/>
    </vehicle>
    <vehicle id="78" depart="78.00">
        <route edges="-827139086#0 -151061666#2 -151061666#1 -151061666#0 -91903019#5 -91903019#4 91903010#1 91903010#2 57745194#4 57745194#5 385021586 385021588#0 385021588#1 637653407#0 637653407#1 637653407#2 -151593758 151593758"/>
    </vehicle>
    <vehicle id="80" depart="80.00">
        <route edges="-151061667 91903010#0 -91903019#3 -91903019#2 -91903019#1 -154251968#2 -154251968#1 -154251968#0 57745933#2 57745933#3 57745933#4 297176724 272557342#0 154819967"/>
    </vehicle>
    <vehicle id="81" depart="81.00">
        <route edges="-57745192#0 57745192#0 -370409849#1 -370409849#0 -91903023#2 -91903023#1 -91903023#0 91903019#5 151061666#0 151061666#1 151061666#2 827139086#0 827139086#1 827139086#2"/>
    </vehicle>
    <vehicle id="82" depart="82.00">
        <route edges="637653407#2 -151593758 -94064278 -94064284#2 -94064284#1 -94064284#0 272557339 -57745933#4 -57745933#3 -29249105#1 -150810780#5 -150810780#4 -150810780#3 -150810780#2 -150810799#0"/>
    </vehicle>
    <vehicle id="83" depart="83.00">
        <route edges="-57745192#1 370409849#2 -94064274#0 -94064282#1 -94064282#0 94064286 94064280 -94064278 -94064284#2 -94064284#1 -94064284#0 357009406#1 272557342#0 272557342#1 272557342#2 272557342#3 29249160"/>
    </vehicle>
    <vehicle id="84" depart="84.00">
        <route edges="-370418514#3 -370418514#2 -370418514#1 154251968#1 154251968#2 91903019#1 91903019#2 91903019#3 91903019#4 91903019#5 151061666#0 -151061666#0"/>
    </vehicle>
    <vehicle id="85" depart="85.00">
        <route edges="91903019#2 91903019#3 -91903010#0 151061667"/>
    </vehicle>
    <vehicle id="86" depart="86.00">
        <route edges="150810780#0 150810780#1 150810780#2 150810780#3 150810780#4 150810780#5 29249105#1 -57745933#2 154251968#0 370418514#1 370418514#2 370418514#3 -370418515 370418515"/>
    </vehicle>
    <vehicle id="87" depart="87.00">
        <route edges="57745195#0 57745195#1 57745195#2 57745197 57745194#3 57745194#4 57745194#5 385021586 385021588#0 385021588#1 370418515 -370418514#3 -370418514#2 -370418514#1 -154251968#0 57745933#2 -29249105#1 -29249105#0 -150810785#1 -154819967"/>
    </vehicle>
    <vehicle id="88" depart="88.00">
        <route edges="-151593763#0 151593763#0 151593763#1 -385021588#1 -385021588#0 27712336 57745194#1 57745194#2 57745194#3 -91903010#2"/>
    </vehicle>
    <vehicle id="89" depart="89.00">
        <route edges="-94064284#1 -94064284#0 272557339 208441847#0 208441847#1 -94064280 -637653407#4 -637653407#3 -637653407#2 -637653407#1 -94064274#2"/>
    </vehicle>
    <vehicle id="90" depart="90.00">
        <route edges="370418502 154251969#1 154251969#2 29251413#5 29251413#6 -154251968#1 -154251968#0 57745933#2 57745933#3 57745933#4 297176724 272557342#0 272557342#1 272557342#2 272557342#3 29249160"/>
    </vehicle>
    <vehicle id="91" depart="91.00">
        <route edges="94064284#1 94064284#2 -94064284#2 -94064284#1 -94064284#0 357009406#1 272557342#0 272557342#1 272557342#2 -150810805#1 -150810805#0"/>
    </vehicle>
    <vehicle id="92" depart="92.00">
        <route edges="-94064276#0 94064274#0 94064274#1 94064274#2 -637653407#0 370418515 -370418514#3 -370418514#2 -370418514#1 -154251968#0 -57745933#1 -57745933#0"/>
    </vehicle>
    <vehicle id="93" depart="93.00">
        <route edges="637653407#2 -637653407#2 -637653407#1 -637653407#0 -385021588#1 -385021588#0 27712336 57745194#1 57745194#2 57745194#3 -91903010#2 -91903010#1 -91903010#0 -151061664#4 -151061664#3 -151061664#2 159153558#0 -370418506#1 -370418506#0"/>
    </vehicle>
    <vehicle id="94" depart="94.00">
        <route edges="-370409849#2 -370409849#1 -370409849#0 -91903023#2 -91903023#1 -91903023#0 91903019#5 -91903019#5"/>
    </vehicle>
    <vehicle id="95" depart="95.00">
        <route edges="-94064284#1 -94064284#0 272557339 208441847#0 208441847#1 -94064280 -94064286 94064282#0 94064282#1 94064274#0 -370409849#2 -57745192#0"/>
    </vehicle>
    <vehicle id="96" depart="96.00">
        <route edges="-57745195#1 57745195#1 57745195#2 57745197 57745194#3 -91903010#2 91903010#2"/>
    </vehicle>
    <vehicle id="97" depart="97.00">
        <route edges="150810778#0 150810778#1 150810778#2 150810778#3 150810793#0 -150810785#5 -150810785#4 -150810785#3 -150810785#2 -150810785#1 -150810785#0 -57745933#3 -57745933#2 154251968#0 154251968#1 154251968#2 91903019#1 91903019#2 91903019#3 -91903010#0 -151061664#4 -151061664#3 687380292#0 687380292#1"/>
    </vehicle>
    <vehicle id="98" depart="98.00">
        <route edges="151061656 -687380292#0 151061664#3 151061664#4 91903010#0 -91903019#3 -91903019#2 -91903019#1 -154251968#2 -154251968#1 -154251968#0 57745933#2 -29249105#1 -150810780#5 -150810780#4 -150810780#3 -150810780#2 -150810780#1"/>
    </vehicle>
    <vehicle id="99" depart="99.00">
        <route edges="94064286 -637653407#4 -637653407#3 -637653407#2 -637653407#1 -637653407#0 370418515 -370418514#3 -370418514#2 -370418514#1 -154251968#0 57745933#2"/>
    </vehicle>
</routes>
