<?xml version="1.0" encoding="UTF-8"?>

<!-- generated on 2023-07-17 06:18:34 by Eclipse SUMO polyconvert Version 1.18.0
<configuration xmlns:xsi="http://www.w3.org/2001/XMLSchema-instance" xsi:noNamespaceSchemaLocation="http://sumo.dlr.de/xsd/polyconvertConfiguration.xsd">

    <input>
        <net-file value="dadi.net.xml"/>
        <osm-files value="map.osm"/>
        <type-file value="osmPolyconvert.typ.xml"/>
    </input>

    <output>
        <output-file value="dadi.poly.xml"/>
    </output>

</configuration>
-->

<additional xmlns:xsi="http://www.w3.org/2001/XMLSchema-instance" xsi:noNamespaceSchemaLocation="http://sumo.dlr.de/xsd/additional_file.xsd">
    <location netOffset="-711839.30,-3948172.61" convBoundary="-17.42,-0.00,4025.06,6010.87" origBoundary="-0.658696,35.654065,-0.614211,35.708819" projParameter="+proj=utm +zone=30 +ellps=WGS84 +datum=WGS84 +units=m +no_defs"/>

    <poly id="1034826589" type="building" color="255,230,230" fill="1" layer="-1.00" shape="743.923661,5333.639051 739.154917,5322.557793 715.361775,5332.722050 718.218085,5339.350698 720.130806,5343.792202 743.923661,5333.639051"/>
    <poly id="1034826590" type="building" color="255,230,230" fill="1" layer="-1.00" shape="712.489239,5326.392723 704.234993,5303.950163 731.782718,5293.909073 740.045958,5316.351877 712.489239,5326.392723"/>
    <poly id="1034826591" type="building" color="255,230,230" fill="1" layer="-1.00" shape="725.560678,5280.750577 696.178921,5291.003088 691.083625,5276.539563 720.465421,5266.287033 725.560678,5280.750577"/>
    <poly id="1177391147" type="building" color="255,230,230" fill="1" layer="-1.00" shape="478.876102,5337.708230 439.344421,5351.404097 437.140470,5351.184893 435.818238,5347.412494 436.577221,5339.904676 441.498353,5338.190808 441.023712,5336.836329 441.995983,5327.224565 443.529583,5331.623632 446.560882,5330.563893 450.056446,5330.913887 453.680966,5329.657430 452.816075,5327.205794 447.237842,5329.137048 446.026084,5325.666996 437.616923,5324.822103 439.479812,5306.362540 446.498106,5307.063172 445.184654,5303.302082 441.192183,5302.906908 440.319032,5300.421775 441.218970,5291.563098 458.483356,5285.582192 472.737441,5326.350169 472.783718,5325.929466 474.834109,5326.133906 478.876102,5337.708230"/>
    <poly id="1177391161" type="building" color="255,230,230" fill="1" layer="-1.00" shape="129.949567,5295.270248 143.592654,5290.401106 145.579510,5295.920956 160.291134,5290.666645 164.494308,5302.333448 136.148417,5312.468192 129.949567,5295.270248"/>
    <poly id="1177391188" type="building" color="255,230,230" fill="1" layer="-1.00" shape="286.711857,5269.143852 292.020098,5266.007221 306.305328,5289.969866 309.786046,5287.910698 312.564551,5290.230443 310.374422,5292.842161 321.364922,5301.984994 325.064901,5308.178546 332.788268,5303.623327 323.908582,5288.747702 318.673794,5291.841669 314.094588,5284.172978 319.164111,5281.174961 321.479403,5285.070973 326.229126,5289.014064 324.296614,5285.771012 329.779442,5282.527573 339.050420,5298.078570 342.849921,5301.244144 333.604775,5285.749262 336.506933,5284.031484 340.241515,5290.292471 339.374774,5291.326278 343.245610,5294.537959 346.240189,5299.560237 344.422880,5301.725748 346.799376,5305.712032 336.715693,5311.664959 334.765358,5308.410379 326.601017,5313.232563 323.618663,5316.791066 317.336936,5320.503826 286.711857,5269.143852"/>
    <poly id="1177391194" type="building" color="255,230,230" fill="1" layer="-1.00" shape="549.196127,5313.238093 540.638565,5294.373841 559.181702,5286.037162 560.867710,5289.740584 560.893883,5282.970054 569.965198,5283.009485 572.278599,5288.115453 572.316169,5280.490476 584.370109,5275.073357 585.763310,5278.148163 585.733715,5285.817733 598.675496,5280.000068 603.989634,5280.027330 598.081195,5266.998545 609.375608,5261.918491 613.994122,5272.096950 616.619390,5272.115374 616.637021,5268.730217 614.862623,5268.721054 611.568628,5261.460359 619.508314,5261.494959 621.778572,5266.511106 637.713150,5259.355384 637.722091,5257.468554 670.793228,5257.627405 632.123108,5275.017268 631.847878,5274.411267 588.519432,5293.887675 588.506230,5295.574598 549.196127,5313.238093"/>
    <poly id="1177391211" type="building" color="255,230,230" fill="1" layer="-1.00" shape="668.550780,5329.747647 663.103160,5331.515392 660.344916,5323.057569 665.792540,5321.289822 668.550780,5329.747647"/>
    <poly id="1177391219" type="building" color="255,230,230" fill="1" layer="-1.00" shape="419.991522,5259.186747 421.321918,5264.890779 408.348079,5267.888468 407.026725,5262.184654 419.991522,5259.186747"/>
    <poly id="1177391222" type="building" color="255,230,230" fill="1" layer="-1.00" shape="498.942567,5401.193190 431.663398,5417.422297 422.547442,5456.743400 411.965644,5459.298750 404.482972,5447.730995 405.321287,5444.099057 413.947596,5446.081345 411.811913,5437.327690 405.752038,5435.928476 406.579713,5432.362886 401.407099,5433.615647 400.791731,5436.253893 397.766450,5435.548851 396.307239,5429.553134 405.477482,5427.341423 411.816422,5437.139093 418.509953,5408.249793 379.592362,5399.304988 380.713209,5394.458777 372.375081,5392.538916 377.554437,5370.173640 399.674190,5364.841512 429.509803,5410.932659 434.577028,5389.097537 447.918230,5385.875577 447.777929,5385.306110 429.655836,5389.679180 436.914014,5358.383537 489.131483,5345.779181 481.216745,5379.911856 494.507334,5382.971496 498.942567,5401.193190"/>
    <poly id="1177391229" type="building" color="255,230,230" fill="1" layer="-1.00" shape="555.070928,5336.378372 537.318929,5341.548206 535.954096,5336.908950 540.613389,5335.544080 538.076188,5326.925087 545.406728,5324.791603 545.791396,5326.121736 551.562894,5324.439371 555.070928,5336.378372"/>
    <poly id="1177391231" type="building" color="255,230,230" fill="1" layer="-1.00" shape="376.899856,5321.805347 380.257810,5318.821952 383.970343,5322.973388 380.612655,5325.945688 376.899856,5321.805347"/>
    <poly id="1177391284" type="building" color="255,230,230" fill="1" layer="-1.00" shape="466.048551,5257.734983 475.942379,5255.562836 476.580015,5258.430849 480.721450,5257.519771 483.189720,5268.645749 469.145692,5271.717657 466.048551,5257.734983"/>
    <poly id="1177391305" type="building" color="255,230,230" fill="1" layer="-1.00" shape="376.977125,5319.709249 373.906551,5322.033501 369.604111,5316.424937 372.665901,5314.089374 376.977125,5319.709249"/>
    <poly id="1177391317" type="building" color="255,230,230" fill="1" layer="-1.00" shape="692.248532,5382.563902 690.524749,5383.088748 678.130871,5390.984040 678.860623,5390.757303 664.287929,5400.032389 663.448795,5400.289809 658.833893,5385.427089 665.067550,5381.458106 663.831904,5377.476833 666.295776,5375.915173 673.209801,5373.782925 675.168019,5372.542171 672.689491,5368.664348 668.046694,5370.096146 666.895428,5366.372199 680.531610,5362.180817 682.565547,5368.745365 685.201657,5367.931550 686.983776,5373.668651 691.828491,5381.199613 692.248532,5382.563902"/>
    <poly id="1177391325" type="building" color="255,230,230" fill="1" layer="-1.00" shape="349.812703,5303.131098 329.726995,5270.704570 333.705916,5268.257709 353.791617,5300.684246 349.812703,5303.131098"/>
    <poly id="1177391373" type="building" color="255,230,230" fill="1" layer="-1.00" shape="498.241833,5338.127004 507.801808,5335.525104 511.300102,5348.251968 505.239595,5349.905244 504.998405,5349.011455 501.489901,5349.959859 498.241833,5338.127004"/>
    <poly id="1177391391" type="building" color="255,230,230" fill="1" layer="-1.00" shape="773.700274,5270.980667 769.637653,5273.514138 769.968294,5275.586707 758.488376,5282.737870 741.511031,5285.417202 740.926533,5284.492984 741.981035,5291.122896 731.601953,5292.761417 727.658381,5268.013293 727.438017,5268.141220 725.564325,5256.396674 731.462631,5255.472275 730.715071,5250.770062 737.322392,5249.729440 738.290381,5255.813365 732.031051,5259.715088 733.785212,5259.435182 734.580688,5264.404949 739.543917,5261.315814 755.403497,5258.809513 750.605533,5261.802695 752.053772,5270.895196 759.688134,5269.690481 759.381184,5267.762783 766.816859,5263.134432 758.119241,5264.502384 764.323489,5260.632661 768.685874,5259.949012 769.449651,5264.729320 770.984745,5263.767058 771.606893,5267.655953 773.700274,5270.980667"/>
    <poly id="1177391414" type="building" color="255,230,230" fill="1" layer="-1.00" shape="421.077738,5263.364208 431.908811,5263.267967 431.967067,5269.540998 421.135736,5269.648332 421.077738,5263.364208"/>
    <poly id="1177391426" type="building" color="255,230,230" fill="1" layer="-1.00" shape="511.751903,5373.271643 537.776549,5367.078638 542.246864,5385.723008 544.760010,5385.128217 547.601061,5396.940257 519.063353,5403.728027 511.751903,5373.271643"/>
    <poly id="1177391432" type="building" color="255,230,230" fill="1" layer="-1.00" shape="649.889147,5298.775231 651.493207,5303.631139 656.786477,5301.881892 655.206911,5297.137572 660.764730,5295.305857 664.185783,5305.577788 633.449239,5315.698164 628.879540,5301.968776 644.074565,5296.959921 645.189104,5300.327776 649.889147,5298.775231"/>
    <poly id="1177391456" type="building" color="255,230,230" fill="1" layer="-1.00" shape="431.406500,5345.619767 427.428022,5346.912169 419.231841,5346.627397 420.054170,5322.837036 416.562346,5322.709149 416.177079,5333.900082 410.464717,5335.761551 409.325337,5332.293235 411.935076,5331.445410 411.538688,5330.226006 411.769958,5323.582490 409.980756,5318.133895 411.428319,5318.179604 419.056617,5315.709030 420.542333,5320.217950 420.926279,5309.082486 422.988906,5309.154003 429.029702,5307.189392 427.747103,5303.273639 423.558503,5303.129090 423.658359,5300.467419 432.388205,5300.776053 432.307741,5303.005278 428.538961,5304.236094 429.518345,5307.201076 433.616454,5307.343465 433.297011,5316.537929 435.094718,5322.008933 436.527336,5321.543678 435.999180,5336.816086 431.664872,5338.222082 431.406500,5345.619767"/>
    <poly id="1177391512" type="building" color="255,230,230" fill="1" layer="-1.00" shape="325.551174,5262.068694 330.115365,5259.757920 333.420154,5266.197336 328.855965,5268.508107 325.551174,5262.068694"/>
    <poly id="1177391563" type="building" color="255,230,230" fill="1" layer="-1.00" shape="796.988330,5366.967493 772.770791,5372.170707 742.580718,5304.268876 738.823592,5305.388840 735.770177,5295.269981 756.854242,5288.970391 755.244092,5283.614803 751.867610,5286.231314 750.655247,5284.681545 759.829187,5281.948559 757.827302,5283.499059 770.676414,5279.666365 796.988330,5366.967493"/>
    <poly id="1177391570" type="building" color="255,230,230" fill="1" layer="-1.00" shape="194.950309,5360.415660 198.600848,5356.551171 201.682818,5359.433141 198.041328,5363.297844 194.950309,5360.415660"/>
    <poly id="1177391572" type="building" color="255,230,230" fill="1" layer="-1.00" shape="398.087445,5303.963154 391.885801,5304.702914 391.424517,5300.895604 397.634948,5300.167154 398.087445,5303.963154"/>
    <poly id="1177391598" type="building" color="255,230,230" fill="1" layer="-1.00" shape="547.822912,5314.626073 524.988425,5321.439284 522.580595,5313.467206 519.581283,5315.460107 523.970194,5321.992140 493.220257,5331.169144 490.007652,5320.502668 515.496047,5312.887031 517.586457,5314.446668 520.886881,5310.085515 519.881547,5308.585134 518.020834,5311.049282 515.777546,5311.717138 509.639866,5302.590223 512.501323,5300.682823 515.881279,5303.216827 509.612634,5293.886976 507.168673,5294.616636 504.778120,5286.678279 501.162174,5289.089347 502.563497,5293.718368 480.978258,5300.161964 473.277029,5274.635920 493.676931,5268.541360 502.577277,5281.785929 500.296094,5284.795036 518.042046,5279.502875 519.589765,5280.661022 524.899530,5298.282031 534.665962,5305.597621 540.566279,5303.829528 547.822912,5314.626073"/>
    <poly id="1177391618" type="building" color="255,230,230" fill="1" layer="-1.00" shape="490.499979,5309.003485 487.341899,5308.927953 487.480667,5303.125842 500.836913,5303.445291 500.565196,5314.805448 490.367046,5314.561530 490.499979,5309.003485"/>
    <poly id="1177391623" type="building" color="255,230,230" fill="1" layer="-1.00" shape="325.379051,5271.544180 330.652411,5271.004192 331.750686,5281.497961 325.433520,5282.146205 324.784886,5275.947874 325.828699,5275.839616 325.379051,5271.544180"/>
    <poly id="1177391654" type="building" color="255,230,230" fill="1" layer="-1.00" shape="363.210217,5249.071264 380.279959,5288.352324 365.917172,5294.535938 362.896084,5287.592679 367.552653,5285.583839 368.556754,5287.894489 372.609197,5286.159818 370.592213,5281.527206 360.675477,5285.796863 350.394306,5262.129626 350.595770,5262.034539 348.493051,5257.200080 357.394235,5253.372344 356.733260,5251.858014 363.210217,5249.071264"/>
    <poly id="1177391677" type="building" color="255,230,230" fill="1" layer="-1.00" shape="570.345254,5349.620116 558.235003,5355.124702 554.508463,5347.021160 552.128410,5348.107544 548.401861,5340.004005 560.319973,5334.583611 562.910453,5340.217918 565.491709,5339.047548 570.345254,5349.620116"/>
    <poly id="1177391688" type="building" color="255,230,230" fill="1" layer="-1.00" shape="431.530449,5271.140093 431.997107,5289.111445 411.060298,5289.643183 410.593863,5271.660741 431.530449,5271.140093"/>
    <poly id="1177391692" type="building" color="255,230,230" fill="1" layer="-1.00" shape="387.471732,5307.172647 407.236642,5306.424135 407.787154,5320.889812 383.328304,5321.803615 383.157051,5317.226223 387.842242,5317.049618 387.471732,5307.172647"/>
    <poly id="1177391697" type="building" color="255,230,230" fill="1" layer="-1.00" shape="502.296828,5275.341077 499.745166,5269.974126 496.540344,5271.473710 495.281548,5268.835044 502.231717,5265.571300 503.429292,5268.119700 513.840848,5263.229318 519.158176,5274.478959 506.722924,5280.319952 503.990790,5274.549075 502.296828,5275.341077"/>
    <poly id="1177391734" type="building" color="255,230,230" fill="1" layer="-1.00" shape="541.964393,5348.330592 547.703662,5346.480951 549.331992,5351.459521 553.255400,5350.199155 555.027206,5355.614068 545.354957,5358.746044 541.964393,5348.330592"/>
    <poly id="1177391804" type="building" color="255,230,230" fill="1" layer="-1.00" shape="300.810297,5369.882336 325.741591,5338.964569 330.556744,5342.820427 333.757293,5338.845333 337.275433,5341.660075 302.257935,5385.079849 294.892960,5379.187234 301.769813,5370.648981 300.810297,5369.882336"/>
    <poly id="1177391831" type="building" color="255,230,230" fill="1" layer="-1.00" shape="564.335892,5360.487790 572.835724,5356.406461 580.496590,5372.252229 586.654262,5375.241237 590.528660,5373.380301 588.776859,5376.968167 590.174287,5379.865473 588.543943,5380.647880 592.115497,5388.037315 596.312957,5390.080303 599.030610,5395.695467 603.225694,5393.675707 613.401943,5398.614647 614.566456,5401.029072 612.548273,5405.154472 622.993048,5410.221953 626.996292,5418.487557 609.346791,5426.945370 605.317982,5418.612562 598.613794,5421.815505 589.374323,5402.701765 594.787234,5400.111729 596.377239,5396.853000 582.235646,5403.629871 579.241961,5397.441995 575.196474,5395.480353 576.148610,5393.527289 562.241883,5364.755689 564.335892,5360.487790"/>
    <poly id="1177391836" type="building" color="255,230,230" fill="1" layer="-1.00" shape="158.113017,5285.952540 158.320584,5290.530787 152.909357,5290.778978 152.692739,5286.200515 158.113017,5285.952540"/>
    <poly id="1177391863" type="building" color="255,230,230" fill="1" layer="-1.00" shape="541.586827,5357.679074 507.501160,5370.805612 501.990727,5356.654189 536.076702,5343.516534 541.586827,5357.679074"/>
    <poly id="1177391870" type="building" color="255,230,230" fill="1" layer="-1.00" shape="385.687217,5253.804437 396.839522,5253.527128 397.155161,5266.077945 386.002872,5266.355253 385.687217,5253.804437"/>
    <poly id="1177391876" type="building" color="255,230,230" fill="1" layer="-1.00" shape="873.802690,5266.096780 876.856271,5268.645307 878.682772,5266.480115 885.713214,5272.343016 872.675419,5287.826323 862.591670,5279.403814 873.802690,5266.096780"/>
    <poly id="1177391889" type="building" color="255,230,230" fill="1" layer="-1.00" shape="385.067485,5352.448554 384.180153,5355.479908 378.911450,5353.933127 379.807564,5350.913083 385.067485,5352.448554"/>
    <poly id="1177391900" type="building" color="255,230,230" fill="1" layer="-1.00" shape="375.917048,5331.860871 383.006933,5339.034606 369.211473,5352.546829 362.121856,5345.362012 375.917048,5331.860871"/>
    <poly id="1177391910" type="building" color="255,230,230" fill="1" layer="-1.00" shape="383.238253,5361.551424 386.884743,5346.497867 382.410514,5345.425187 384.920971,5335.095376 403.231767,5339.495910 397.074775,5364.879270 383.238253,5361.551424"/>
    <poly id="1177391927" type="building" color="255,230,230" fill="1" layer="-1.00" shape="403.982658,5295.590206 391.849903,5295.599858 391.838033,5287.385397 384.078568,5287.388607 384.059785,5269.994083 398.374703,5269.981084 398.378467,5273.610953 403.964866,5273.611303 403.982658,5295.590206"/>
    <poly id="1177391941" type="building" color="255,230,230" fill="1" layer="-1.00" shape="713.979104,5348.495729 720.895368,5370.850766 715.833391,5372.394606 713.732400,5365.606438 687.847138,5373.533916 683.040599,5357.978378 713.979104,5348.495729"/>
    <poly id="1177391945" type="building" color="255,230,230" fill="1" layer="-1.00" shape="605.592022,5385.595843 605.762623,5385.655427 662.642544,5373.074859 662.294212,5374.010043 654.384262,5375.763252 660.737810,5404.232112 661.840814,5401.272543 700.880307,5392.638695 702.622321,5400.428389 772.090785,5385.064041 775.263780,5399.259584 701.062130,5415.676107 717.796932,5434.081423 691.354990,5439.930899 688.079262,5438.720249 689.115837,5437.779341 675.981373,5440.683982 674.141385,5432.447937 685.009422,5430.044048 681.992540,5426.719445 684.575898,5419.788121 676.738376,5426.837869 655.369439,5418.955765 677.626267,5443.454025 661.415526,5447.028761 605.592022,5385.595843"/>
    <poly id="1177391950" type="amenity" color="237,199,199" fill="1" layer="-1.00" shape="986.884671,5301.430707 870.333888,5350.409115 868.048951,5312.380301 885.673964,5304.965809 863.559153,5306.289675 862.491618,5288.492547 892.249917,5286.719111 888.521755,5277.938254 898.335798,5273.811010 886.847594,5274.501452 886.530726,5269.210125 896.088748,5265.187745 903.664571,5283.052038 906.316958,5281.938969 909.744870,5290.024421 937.372153,5288.388772 936.490871,5273.781872 932.754493,5264.967497 912.617145,5260.089182 915.256781,5249.307461 941.938488,5255.774567 954.693250,5264.194589 935.298868,5265.339285 990.750327,5278.789980 991.093138,5279.597419 1028.225793,5288.602007 987.396544,5305.760992 989.810427,5302.133563 986.884671,5301.430707"/>
    <poly id="1177391950#1" type="building" color="255,230,230" fill="1" layer="-1.00" shape="986.884671,5301.430707 870.333888,5350.409115 868.048951,5312.380301 885.673964,5304.965809 863.559153,5306.289675 862.491618,5288.492547 892.249917,5286.719111 888.521755,5277.938254 898.335798,5273.811010 886.847594,5274.501452 886.530726,5269.210125 896.088748,5265.187745 903.664571,5283.052038 906.316958,5281.938969 909.744870,5290.024421 937.372153,5288.388772 936.490871,5273.781872 932.754493,5264.967497 912.617145,5260.089182 915.256781,5249.307461 941.938488,5255.774567 954.693250,5264.194589 935.298868,5265.339285 990.750327,5278.789980 991.093138,5279.597419 1028.225793,5288.602007 987.396544,5305.760992 989.810427,5302.133563 986.884671,5301.430707"/>
    <poly id="1177391954" type="building" color="255,230,230" fill="1" layer="-1.00" shape="279.553026,5301.607479 296.686387,5327.247698 290.568391,5331.308495 273.426239,5305.656978 279.553026,5301.607479"/>
    <poly id="1177391989" type="building" color="255,230,230" fill="1" layer="-1.00" shape="589.402443,5375.040592 602.081617,5368.084429 609.770519,5381.999452 597.091622,5388.944510 589.402443,5375.040592"/>
    <poly id="1177391998" type="building" color="255,230,230" fill="1" layer="-1.00" shape="836.851313,5302.808146 841.545055,5302.654184 841.635368,5305.309315 836.941627,5305.463276 836.851313,5302.808146"/>
    <poly id="1177500497" type="building" color="255,230,230" fill="1" layer="-1.00" shape="265.211200,5412.267119 258.558482,5417.869190 252.931075,5411.252207 257.920811,5407.042330 261.320094,5411.041927 262.983076,5409.649730 265.211200,5412.267119"/>
    <poly id="1177500498" type="building" color="255,230,230" fill="1" layer="-1.00" shape="438.476431,5546.348084 428.765323,5546.193567 428.845084,5541.722074 438.556197,5541.876591 438.476431,5546.348084"/>
    <poly id="1177500499" type="building" color="255,230,230" fill="1" layer="-1.00" shape="418.661740,5581.006556 419.373872,5570.156441 464.879780,5573.131706 464.167858,5583.970726 418.661740,5581.006556"/>
    <poly id="1177500501" type="building" color="255,230,230" fill="1" layer="-1.00" shape="770.340734,5534.498452 770.813009,5524.608315 777.360573,5524.920539 777.194638,5528.446453 783.253833,5528.735884 782.947215,5535.111200 770.340734,5534.498452"/>
    <poly id="1177500502" type="building" color="255,230,230" fill="1" layer="-1.00" shape="520.158918,5646.705534 506.717392,5648.837136 504.235965,5633.348419 517.677514,5631.216812 520.158918,5646.705534"/>
    <poly id="1177500503" type="building" color="255,230,230" fill="1" layer="-1.00" shape="231.095451,5487.322133 234.504673,5481.809062 239.867703,5485.089651 236.458478,5490.602720 231.095451,5487.322133"/>
    <poly id="1177500504" type="building" color="255,230,230" fill="1" layer="-1.00" shape="757.208368,5527.490468 734.342037,5534.890668 729.989290,5521.566010 752.864433,5514.177107 757.208368,5527.490468"/>
    <poly id="1177500505" type="building" color="255,230,230" fill="1" layer="-1.00" shape="420.430844,5517.622043 414.437704,5521.386030 404.338006,5521.200050 404.263828,5525.438570 397.811298,5525.317598 397.945090,5517.828132 394.405897,5520.063467 394.341242,5523.525197 395.842187,5525.881033 387.362215,5525.733797 387.400641,5523.747772 392.805631,5520.347115 391.130075,5517.720699 394.705727,5515.475134 395.076990,5515.472910 404.737861,5509.398949 403.943869,5508.147838 396.206141,5508.007241 393.954850,5504.467940 394.143479,5493.927217 397.195140,5492.013233 397.243648,5489.605640 405.590415,5484.343879 405.621419,5482.668483 410.658653,5479.503247 419.808279,5479.666515 421.073398,5481.661508 420.430844,5517.622043"/>
    <poly id="1177500507" type="building" color="255,230,230" fill="1" layer="-1.00" shape="711.508077,5515.984054 669.234531,5526.227641 667.403914,5518.735537 673.104542,5517.362369 671.380671,5510.327931 674.795727,5509.499463 675.686677,5513.128380 704.846417,5506.067413 705.621563,5509.238449 709.619464,5508.268546 711.508077,5515.984054"/>
    <poly id="1177500510" type="building" color="255,230,230" fill="1" layer="-1.00" shape="626.835720,5536.035513 622.487801,5535.742744 622.030944,5542.347568 611.979134,5541.674085 612.759866,5530.237297 627.168393,5531.214859 626.835720,5536.035513"/>
    <poly id="1177500512" type="building" color="255,230,230" fill="1" layer="-1.00" shape="460.266504,5529.042179 467.446734,5522.964460 478.244348,5535.610587 471.064119,5541.688298 460.266504,5529.042179"/>
    <poly id="1177500513" type="building" color="255,230,230" fill="1" layer="-1.00" shape="161.042135,5524.610662 158.488790,5526.891831 155.886716,5524.010233 158.440062,5521.729063 161.042135,5524.610662"/>
    <poly id="1177500514" type="building" color="255,230,230" fill="1" layer="-1.00" shape="278.815600,5443.495223 280.952504,5438.562279 302.452195,5447.800817 300.315280,5452.733757 278.815600,5443.495223"/>
    <poly id="1177500516" type="building" color="255,230,230" fill="1" layer="-1.00" shape="630.559962,5642.198799 601.257083,5650.344376 593.724444,5623.479070 589.614400,5617.031361 587.412196,5609.175175 595.815574,5606.845416 603.592591,5601.936514 606.053515,5601.251692 609.965707,5615.209553 611.457797,5617.554118 608.287746,5606.255881 608.853010,5606.091805 608.077333,5603.320375 623.763168,5598.967082 626.293545,5602.946039 628.737682,5611.662748 630.081517,5613.770663 628.298200,5614.893507 629.589336,5616.933559 627.796706,5618.067280 630.065440,5621.629267 625.579344,5624.463462 630.559962,5642.198799"/>
    <poly id="1177500517" type="building" color="255,230,230" fill="1" layer="-1.00" shape="487.310455,5586.200383 482.406880,5589.834981 478.353502,5584.421010 483.248294,5580.775099 487.310455,5586.200383"/>
    <poly id="1177500518" type="building" color="255,230,230" fill="1" layer="-1.00" shape="583.637532,5475.204590 602.133517,5462.393488 615.676121,5481.776738 607.565299,5487.388065 605.166648,5483.956182 592.691856,5492.593360 589.829015,5488.506558 591.918923,5487.058034 583.637532,5475.204590"/>
    <poly id="1177500519" type="building" color="255,230,230" fill="1" layer="-1.00" shape="568.001764,5449.077855 581.725911,5502.498789 575.258295,5504.142270 573.726031,5498.178066 554.833105,5502.987537 548.753758,5479.320639 545.228528,5480.213121 543.778763,5474.583906 544.589678,5474.370201 541.723949,5463.212484 544.894160,5462.400309 543.096723,5455.408545 568.001764,5449.077855"/>
    <poly id="1177500520" type="building" color="255,230,230" fill="1" layer="-1.00" shape="326.496211,5583.176732 304.732216,5584.255013 304.234707,5574.386112 339.785874,5572.627242 340.172177,5580.328942 335.222859,5580.576951 335.745125,5590.923758 326.907051,5591.367429 326.496211,5583.176732"/>
    <poly id="1177500521" type="building" color="255,230,230" fill="1" layer="-1.00" shape="527.909959,5620.172645 535.282078,5618.561876 538.604690,5633.704421 531.232582,5635.315187 527.909959,5620.172645"/>
    <poly id="1177500522" type="building" color="255,230,230" fill="1" layer="-1.00" shape="469.220517,5417.754309 468.652423,5415.764878 476.802529,5416.459308 475.791464,5412.927448 492.737695,5408.126739 506.072800,5454.744856 509.418387,5453.792560 512.083364,5463.125020 484.882253,5470.821777 481.899401,5460.393899 491.006007,5457.814447 491.257831,5454.856703 482.379034,5457.375002 479.731719,5457.145182 479.518454,5459.626537 461.350770,5464.775461 460.221530,5464.670754 455.099909,5446.754573 454.098499,5458.341485 426.576746,5455.973926 428.855763,5429.576533 467.542825,5418.624406 474.653291,5443.481416 479.329555,5442.161325 479.620197,5438.716098 482.901913,5437.784465 482.266740,5435.571423 474.910488,5437.648835 469.320613,5418.111911 470.286952,5417.835315 469.220517,5417.754309"/>
    <poly id="1177500523" type="building" color="255,230,230" fill="1" layer="-1.00" shape="287.350775,5429.968181 285.576455,5436.019812 281.395271,5434.809879 283.160539,5428.758032 287.350775,5429.968181"/>
    <poly id="1177500524" type="building" color="255,230,230" fill="1" layer="-1.00" shape="258.659184,5421.612373 253.447363,5424.507117 248.801056,5416.237442 254.013144,5413.331602 258.659184,5421.612373"/>
    <poly id="1177500525" type="building" color="255,230,230" fill="1" layer="-1.00" shape="264.191068,5577.736116 239.705516,5578.283319 239.565710,5572.008348 243.922887,5571.912642 243.735497,5563.460888 258.410511,5563.134394 258.534521,5568.554271 263.978866,5568.429050 264.191068,5577.736116"/>
    <poly id="1177500526" type="building" color="255,230,230" fill="1" layer="-1.00" shape="683.656181,5485.435293 663.959302,5498.483891 665.331623,5500.536991 656.058314,5506.675460 648.899663,5495.958850 677.869864,5476.771762 683.656181,5485.435293"/>
    <poly id="1177500530" type="building" color="255,230,230" fill="1" layer="-1.00" shape="580.793459,5460.495292 572.100482,5451.462579 585.470088,5438.728586 588.084824,5441.455216 596.655410,5433.279611 602.724604,5439.585495 580.793459,5460.495292"/>
    <poly id="1177500531" type="building" color="255,230,230" fill="1" layer="-1.00" shape="607.910432,5491.126013 599.832035,5495.761300 597.449578,5491.652690 605.528243,5487.006307 607.910432,5491.126013"/>
    <poly id="1177500532" type="building" color="255,230,230" fill="1" layer="-1.00" shape="315.662388,5454.221644 311.212668,5461.596861 300.545986,5455.203523 304.995700,5447.828300 315.662388,5454.221644"/>
    <poly id="1177500533" type="building" color="255,230,230" fill="1" layer="-1.00" shape="313.331810,5463.090536 316.551187,5453.021859 331.431773,5457.739893 328.212380,5467.808565 313.331810,5463.090536"/>
    <poly id="1177500536" type="building" color="255,230,230" fill="1" layer="-1.00" shape="831.210462,5680.360124 836.531592,5681.597641 835.503114,5685.979813 830.182253,5684.731203 831.210462,5680.360124"/>
    <poly id="1177500539" type="building" color="255,230,230" fill="1" layer="-1.00" shape="785.103828,5638.606366 783.786816,5655.791356 781.395901,5656.955118 764.107186,5655.653000 763.909282,5658.245726 744.945945,5667.515403 743.518128,5667.403507 744.537144,5653.963274 774.191503,5639.466118 776.993120,5639.677526 777.123996,5637.993418 785.103828,5638.606366"/>
    <poly id="1177500540" type="building" color="255,230,230" fill="1" layer="-1.00" shape="286.093307,5722.040851 286.944846,5726.945306 280.835884,5727.987044 279.993390,5723.082806 286.093307,5722.040851"/>
    <poly id="1177500541" type="building" color="255,230,230" fill="1" layer="-1.00" shape="608.021072,5517.525087 610.290127,5507.455950 617.161395,5508.996831 618.174333,5504.503266 635.366077,5508.355818 634.576898,5511.822412 645.032298,5514.170619 642.521339,5525.266284 608.021072,5517.525087"/>
    <poly id="1177500542" type="building" color="255,230,230" fill="1" layer="-1.00" shape="443.005327,5515.220284 441.066309,5512.631959 447.482019,5507.856871 454.572131,5517.284035 442.892770,5525.984834 437.741938,5519.134910 443.005327,5515.220284"/>
    <poly id="1177500545" type="building" color="255,230,230" fill="1" layer="-1.00" shape="411.989477,5404.908121 411.246609,5423.860677 404.453332,5423.598356 404.353480,5426.260027 396.827781,5425.958000 397.679518,5404.343989 411.989477,5404.908121"/>